/*---------------------------------------------------------------------------*\
| =========                 |                                                 |
| \\      /  F ield         | OpenFOAM: The Open Source CFD Toolbox           |
|  \\    /   O peration     | Version:  5.x                                   |
|   \\  /    A nd           | Web:      www.OpenFOAM.org                      |
|    \\/     M anipulation  |                                                 |
\*---------------------------------------------------------------------------*/
Build  : 5.x-197d9d3bf20a
Exec   : snappyHexMesh -overwrite
Date   : Jan 07 2019
Time   : 14:14:13
Host   : "MM-M235-D1"
PID    : 7251
I/O    : uncollated
Case   : /home/jbrakefi/OpenFOAM/olaFlow/My_olaFlow/dynamic_OWSC
nProcs : 1
sigFpe : Enabling floating point exception trapping (FOAM_SIGFPE).
fileModificationChecking : Monitoring run-time modified files using timeStampMaster (fileModificationSkew 10)
allowSystemOperations : Allowing user-supplied system call operations

// * * * * * * * * * * * * * * * * * * * * * * * * * * * * * * * * * * * * * //
Create time

Create mesh for time = 0

Read mesh in = 0.01 s

Overall mesh bounding box  : (-7.8 -0.01 -1) (7.03 0.01 1)
Relative tolerance         : 1e-06
Absolute matching distance : 1.49643e-05

Reading refinement surfaces.
Read refinement surfaces in = 0.02 s

Reading refinement shells.
Refinement level 1 for all cells inside cylinder
Read refinement shells in = 0 s

Setting refinement level of surface to be consistent with shells.
Checked shell refinement in = 0 s

Reading features.
Read features in = 0 s


Determining initial surface intersections
-----------------------------------------

Edge intersection testing:
    Number of edges             : 10970
    Number of edges to retest   : 10970
    Number of intersected edges : 116
Calculated surface intersections in = 0.01 s

Initial mesh : cells:2700  faces:10970  points:5742
Cells per refinement level:
    0	2700

Adding patches for surface regions
----------------------------------

Patch Type                Region                        
----- ----                ------                        
flap:

5     wall                flap                          

cylinder:

6     patch               cylinder                      
7     patch               cylinder_slave                

Added patches in = 0 s

Selecting decompositionMethod none
Layer thickness specified as final layer and expansion ratio.

Refinement phase
----------------

Found point (-1 0 0.5) in cell 1036 on processor 0

Surface refinement iteration 0
------------------------------

Marked for refinement due to surface intersection          : 176 cells.
Determined cells to refine in = 0.01 s
Selected for refinement : 176 cells (out of 2700)
Edge intersection testing:
    Number of edges             : 15518
    Number of edges to retest   : 5991
    Number of intersected edges : 460
Refined mesh in = 0.02 s
After refinement surface refinement iteration 0 : cells:3932  faces:15518  points:7935
Cells per refinement level:
    0	2524
    1	1408

Surface refinement iteration 1
------------------------------

Marked for refinement due to surface intersection          : 702 cells.
Determined cells to refine in = 0 s
Selected for refinement : 748 cells (out of 3932)
Edge intersection testing:
    Number of edges             : 33791
    Number of edges to retest   : 23770
    Number of intersected edges : 1840
Refined mesh in = 0.05 s
After refinement surface refinement iteration 1 : cells:9168  faces:33791  points:15960
Cells per refinement level:
    0	2476
    1	1092
    2	5600

Surface refinement iteration 2
------------------------------

Marked for refinement due to surface intersection          : 0 cells.
Determined cells to refine in = 0 s
Selected for refinement : 0 cells (out of 9168)
Stopping refining since too few cells selected.


Removing mesh beyond surface intersections
------------------------------------------

Found point (-1 0 0.5) in global region 0 out of 2 regions.
Keeping all cells in region 0 containing point (-1 0 0.5)
Selected for keeping : 9080 cells.
Edge intersection testing:
    Number of edges             : 33531
    Number of edges to retest   : 316
    Number of intersected edges : 1840

Shell refinement iteration 0
----------------------------

Marked for refinement due to distance to explicit features : 0 cells.
Marked for refinement due to refinement shells             : 272 cells.
Determined cells to refine in = 0.12 s
Selected for internal refinement : 476 cells (out of 9080)
Edge intersection testing:
    Number of edges             : 44538
    Number of edges to retest   : 22636
    Number of intersected edges : 1840
Refined mesh in = 0.05 s
After refinement shell refinement iteration 0 : cells:12412  faces:44538  points:20188
Cells per refinement level:
    0	2176
    1	3244
    2	6992

Shell refinement iteration 1
----------------------------

Marked for refinement due to distance to explicit features : 0 cells.
Marked for refinement due to refinement shells             : 0 cells.
Determined cells to refine in = 0.02 s
Selected for internal refinement : 20 cells (out of 12412)
Edge intersection testing:
    Number of edges             : 45024
    Number of edges to retest   : 1806
    Number of intersected edges : 1840
Refined mesh in = 0.03 s
After refinement shell refinement iteration 1 : cells:12552  faces:45024  points:20396
Cells per refinement level:
    0	2156
    1	3404
    2	6992

Shell refinement iteration 2
----------------------------

Marked for refinement due to distance to explicit features : 0 cells.
Marked for refinement due to refinement shells             : 0 cells.
Determined cells to refine in = 0.01 s
Selected for internal refinement : 0 cells (out of 12552)
Stopping refining since too few cells selected.


Dangling coarse cells refinement iteration 0
--------------------------------------------

Determined cells to refine in = 0 s
Selected for refinement : 0 cells (out of 12552)
Stopping refining since too few cells selected.


Dangling coarse cells refinement iteration 0
--------------------------------------------

Determined cells to refine in = 0 s
Selected for refinement : 0 cells (out of 12552)
Stopping refining since too few cells selected.


Splitting mesh at surface intersections
---------------------------------------

Introducing baffles for 1840 faces that are intersected by the surface.

Edge intersection testing:
    Number of edges             : 45408
    Number of edges to retest   : 3108
    Number of intersected edges : 2224
Created baffles in = 0.03 s


After introducing baffles : cells:12552  faces:45408  points:20396
Cells per refinement level:
    0	2156
    1	3404
    2	6992

Introducing baffles to block off problem cells
----------------------------------------------

markFacesOnProblemCells : marked 564 additional internal faces to be converted into baffles.
Analyzed problem cells in = 0.02 s


Introducing baffles to delete problem cells.

Edge intersection testing:
    Number of edges             : 45972
    Number of edges to retest   : 1962
    Number of intersected edges : 2224
Created baffles in = 0.03 s


After introducing baffles : cells:12552  faces:45972  points:20396
Cells per refinement level:
    0	2156
    1	3404
    2	6992

Remove unreachable sections of mesh
-----------------------------------

Keeping all cells in region 0 containing point (-1 0 0.5)
Selected for keeping : 12160 cells.
Edge intersection testing:
    Number of edges             : 43778
    Number of edges to retest   : 0
    Number of intersected edges : 1840
Split mesh in = 0.17 s


After subsetting : cells:12160  faces:43778  points:19941
Cells per refinement level:
    0	2156
    1	3404
    2	6600

Introducing zones for interfaces
--------------------------------

Surface : cylinder
    faceZone : cylinder
    cellZone : cylinder
Found 1 closed, named surfaces. Assigning cells in/outside these surfaces to the corresponding cellZone.

Walking from location-in-mesh (-1 0 0.5) to assign cellZones - crossing a faceZone face changes cellZone

Found point (-1 0 0.5) in global region 0 out of 2 regions.
CellZones:
    cylinder	size:6396

FaceZones:
    cylinder	size:1456

Edge intersection testing:
    Number of edges             : 43778
    Number of edges to retest   : 0
    Number of intersected edges : 1840

Handling cells with snap problems
---------------------------------

Introducing baffles for 1840 faces that are intersected by the surface.

Edge intersection testing:
    Number of edges             : 43778
    Number of edges to retest   : 1596
    Number of intersected edges : 1840
Created baffles in = 0.19 s


After introducing baffles : cells:12160  faces:43778  points:19941
Cells per refinement level:
    0	2156
    1	3404
    2	6600

Introducing baffles to block off problem cells
----------------------------------------------

markFacesOnProblemCells : marked 0 additional internal faces to be converted into baffles.
Analyzed problem cells in = 0.02 s


Introducing baffles to delete problem cells.

Edge intersection testing:
    Number of edges             : 43778
    Number of edges to retest   : 0
    Number of intersected edges : 1840
Created baffles in = 0.01 s


After introducing baffles : cells:12160  faces:43778  points:19941
Cells per refinement level:
    0	2156
    1	3404
    2	6600

Remove unreachable sections of mesh
-----------------------------------

Keeping all cells in region 0 containing point (-1 0 0.5)
Selected for keeping : 12160 cells.
Edge intersection testing:
    Number of edges             : 43778
    Number of edges to retest   : 0
    Number of intersected edges : 1840
Split mesh in = 0.19 s


After subsetting : cells:12160  faces:43778  points:19941
Cells per refinement level:
    0	2156
    1	3404
    2	6600

Merge free-standing baffles
---------------------------

freeStandingBaffles : detected 0 free-standing baffles out of 0

Detected free-standing baffles : 0
Merged free-standing baffles in = 0.02 s


dupNonManifoldPoints : Found : 0 non-manifold points (out of 19941)
Edge intersection testing:
    Number of edges             : 43778
    Number of edges to retest   : 0
    Number of intersected edges : 1840
Detected unsplittable baffles : 0

Merge refined boundary faces
----------------------------

Merging 0 sets of faces.

No faces merged ...

Merging all points on surface that
- are used by only two boundary faces and
- make an angle with a cosine of more than 0.707107.

No straight edges simplified and no points removed ...
Refined mesh : cells:12160  faces:43778  points:19941
Cells per refinement level:
    0	2156
    1	3404
    2	6600
Writing mesh to time constant
Wrote mesh in = 0.09 s.
Mesh refined in = 1.08 s.

Morphing phase
--------------

Converting zoned faces into baffles ...
For zone cylinder found patches cylinder and cylinder_slave
Edge intersection testing:
    Number of edges             : 45234
    Number of edges to retest   : 9620
    Number of intersected edges : 3296
Created 1456 baffles in = 0.05 s


Surface : cylinder
    faces to become baffle : 2912
    points to duplicate    : 1820
dupNonManifoldPoints : Found : 1820 non-manifold points (out of 19941)
Edge intersection testing:
    Number of edges             : 45234
    Number of edges to retest   : 0
    Number of intersected edges : 3296

Constructing mesh displacer ...
Using mesh parameters 
{
    maxNonOrtho     65;
    maxBoundarySkewness 20;
    maxInternalSkewness 4;
    maxConcave      80;
    minFlatness     0.5;
    minVol          1e-13;
    minTetQuality   1e-30;
    minArea         -1;
    minTwist        0.02;
    minDeterminant  0.001;
    minFaceWeight   0.02;
    minVolRatio     0.01;
    minTriangleTwist -1;
    nSmoothScale    4;
    errorReduction  0.75;
}


Checking initial mesh ...
Checking faces in error :
    non-orthogonality > 65  degrees                        : 0
    faces with face pyramid volume < 1e-13                 : 0
    faces with face-decomposition tet quality < 1e-30      : 0
    faces with concavity > 80  degrees                     : 0
    faces with skewness > 4   (internal) or 20  (boundary) : 0
    faces with interpolation weights (0..1)  < 0.02        : 0
    faces with volume ratio of neighbour cells < 0.01      : 0
    faces with face twist < 0.02                           : 0
    faces on cells with determinant < 0.001                : 0
Detected 0 illegal faces (concave, zero area or negative cell pyramid volume)
Checked initial mesh in = 0.09 s


Smoothing patch points ...
Smoothing iteration 0
Found 3640 non-manifold point(s).

Scaling iteration 0
Moving mesh using displacement scaling : min:1  max:1
Correcting 2-D mesh motion--> FOAM Warning : 
    From function void Foam::twoDPointCorrector::calcAddressing() const
    in file twoDPointCorrector/twoDPointCorrector.C at line 151
    the number of vertices in the geometry is odd - this should not be the case for a 2-D case. Please check the geometry.
--> FOAM Warning : 
    From function void Foam::twoDPointCorrector::calcAddressing() const
    in file twoDPointCorrector/twoDPointCorrector.C at line 160
    The number of points in the mesh is not equal to twice the number of edges normal to the plane - this may be OK only for wedge geometries.
    Please check the geometry or adjust the orthogonality tolerance.

Number of normal edges: 15406 number of points: 21761
 ...done
Checking faces in error :
    non-orthogonality > 65  degrees                        : 0
    faces with face pyramid volume < 1e-13                 : 0
    faces with face-decomposition tet quality < 1e-30      : 0
    faces with concavity > 80  degrees                     : 0
    faces with skewness > 4   (internal) or 20  (boundary) : 0
    faces with interpolation weights (0..1)  < 0.02        : 0
    faces with volume ratio of neighbour cells < 0.01      : 0
    faces with face twist < 0.02                           : 0
    faces on cells with determinant < 0.001                : 0
Successfully moved mesh

Smoothing iteration 1
Found 0 non-manifold point(s).

Scaling iteration 0
Moving mesh using displacement scaling : min:1  max:1
Correcting 2-D mesh motion ...done
Checking faces in error :
    non-orthogonality > 65  degrees                        : 0
    faces with face pyramid volume < 1e-13                 : 0
    faces with face-decomposition tet quality < 1e-30      : 0
    faces with concavity > 80  degrees                     : 0
    faces with skewness > 4   (internal) or 20  (boundary) : 0
    faces with interpolation weights (0..1)  < 0.02        : 0
    faces with volume ratio of neighbour cells < 0.01      : 0
    faces with face twist < 0.02                           : 0
    faces on cells with determinant < 0.001                : 0
Successfully moved mesh

Smoothing iteration 2
Found 0 non-manifold point(s).

Scaling iteration 0
Moving mesh using displacement scaling : min:1  max:1
Correcting 2-D mesh motion ...done
Checking faces in error :
    non-orthogonality > 65  degrees                        : 0
    faces with face pyramid volume < 1e-13                 : 0
    faces with face-decomposition tet quality < 1e-30      : 0
    faces with concavity > 80  degrees                     : 0
    faces with skewness > 4   (internal) or 20  (boundary) : 0
    faces with interpolation weights (0..1)  < 0.02        : 0
    faces with volume ratio of neighbour cells < 0.01      : 0
    faces with face twist < 0.02                           : 0
    faces on cells with determinant < 0.001                : 0
Successfully moved mesh

Patch points smoothed in = 0.19 s



Morph iteration 0
-----------------
Calculating patchDisplacement as distance to nearest surface point ...
Wanted displacement : average:0.00701617 min:4.35805e-05 max:0.0153908
Calculated surface displacement in = 0.01 s


Detecting near surfaces ...
Overriding nearest with intersection of close gaps at 0 out of 4120 points.
--> FOAM Warning : Displacement (-0.00180145 -8.67362e-18 -9.02056e-17) at mesh point 14701 coord (-0.0581985 -0.01 0.0166668) points through the surrounding patch faces
Smoothing displacement ...
Iteration 0
Iteration 10
Iteration 20
Displacement smoothed in = 0.03 s


Moving mesh ...

Iteration 0
Moving mesh using displacement scaling : min:1  max:1
Correcting 2-D mesh motion ...done
Checking faces in error :
    non-orthogonality > 65  degrees                        : 0
    faces with face pyramid volume < 1e-13                 : 0
    faces with face-decomposition tet quality < 1e-30      : 0
    faces with concavity > 80  degrees                     : 0
    faces with skewness > 4   (internal) or 20  (boundary) : 0
    faces with interpolation weights (0..1)  < 0.02        : 0
    faces with volume ratio of neighbour cells < 0.01      : 0
    faces with face twist < 0.02                           : 0
    faces on cells with determinant < 0.001                : 0
Successfully moved mesh
Moved mesh in = 0.07 s


Repatching faces according to nearest surface ...
Repatched 0 faces in = 0 s


Edge intersection testing:
    Number of edges             : 45234
    Number of edges to retest   : 41700
    Number of intersected edges : 3296
Merging 864 sets of faces.

Edge intersection testing:
    Number of edges             : 44370
    Number of edges to retest   : 3672
    Number of intersected edges : 2432

Undo iteration 0
----------------
Checking faces in error :
    non-orthogonality > 65  degrees                        : 0
    faces with face pyramid volume < 1e-13                 : 0
    faces with face-decomposition tet quality < 1e-30      : 0
    faces with concavity > 80  degrees                     : 0
    faces with skewness > 4   (internal) or 20  (boundary) : 0
    faces with interpolation weights (0..1)  < 0.02        : 0
    faces with volume ratio of neighbour cells < 0.01      : 0
    faces with face twist < 0.02                           : 0
    faces on cells with determinant < 0.001                : 0

Merging all points on surface that
- are used by only two boundary faces and
- make an angle with a cosine of more than 0.422618.

Removing 1080 straight edge points ...

Edge intersection testing:
    Number of edges             : 44370
    Number of edges to retest   : 3672
    Number of intersected edges : 2432

Undo iteration 0
----------------
Checking faces in error :
    non-orthogonality > 65  degrees                        : 0
    faces with face pyramid volume < 1e-13                 : 0
    faces with face-decomposition tet quality < 1e-30      : 0
    faces with concavity > 80  degrees                     : 0
    faces with skewness > 4   (internal) or 20  (boundary) : 0
    faces with interpolation weights (0..1)  < 0.02        : 0
    faces with volume ratio of neighbour cells < 0.01      : 0
    faces with face twist < 0.02                           : 0
    faces on cells with determinant < 0.001                : 0
Snapped mesh : cells:12160  faces:44370  points:20681
Cells per refinement level:
    0	2156
    1	3404
    2	6600
Writing mesh to time constant
Wrote mesh in = 0.26 s.
Mesh snapped in = 0.7 s.
Checking final mesh ...
Checking faces in error :
    non-orthogonality > 65  degrees                        : 0
    faces with face pyramid volume < 1e-13                 : 0
    faces with face-decomposition tet quality < 1e-30      : 0
    faces with concavity > 80  degrees                     : 0
    faces with skewness > 4   (internal) or 20  (boundary) : 0
    faces with interpolation weights (0..1)  < 0.02        : 0
    faces with volume ratio of neighbour cells < 0.01      : 0
    faces with face twist < 0.02                           : 0
    faces on cells with determinant < 0.001                : 0
Finished meshing without any errors
Finished meshing in = 1.88 s.
End

